<?xml version="1.0"?>
<!-- generated on 2017-11-26 22:32:20.740437 by $Id: randomTrips.py 23999 2017-04-21 09:04:47Z behrisch $
  options: -n map.net.xml -r map.rou.xml e 100 -l
-->
<routes xmlns:xsi="http://www.w3.org/2001/XMLSchema-instance" xsi:noNamespaceSchemaLocation="http://sumo.dlr.de/xsd/routes_file.xsd">
    <trip id="0" depart="0.00" from="62149049#1" to="-50291884#0"/>
    <trip id="1" depart="1.00" from="428909218" to="245974103#6"/>
    <trip id="2" depart="2.00" from="48742413#1" to="-32953283#7"/>
    <trip id="3" depart="3.00" from="255344357#1" to="-40827389"/>
    <trip id="4" depart="4.00" from="23492054#2" to="35695225"/>
    <trip id="5" depart="5.00" from="22774580#5" to="67408578"/>
    <trip id="6" depart="6.00" from="-23148079#4" to="41565567#1"/>
    <trip id="7" depart="7.00" from="40151771#6" to="-19025489"/>
    <trip id="8" depart="8.00" from="-30144172#2" to="365477994#1"/>
    <trip id="9" depart="9.00" from="23114417" to="8073178"/>
    <trip id="10" depart="10.00" from="24451438" to="16369508#1"/>
    <trip id="11" depart="11.00" from="17037717" to="35801425#3"/>
    <trip id="12" depart="12.00" from="116940375" to="-364572327"/>
    <trip id="13" depart="13.00" from="483481333#1" to="419710669#1"/>
    <trip id="14" depart="14.00" from="14342512" to="34249629#4"/>
    <trip id="15" depart="15.00" from="40804488#9" to="-72335689#12"/>
    <trip id="16" depart="16.00" from="-23609590#2" to="14378051"/>
    <trip id="17" depart="17.00" from="23609808#8" to="-23492191#0"/>
    <trip id="18" depart="18.00" from="103344469" to="28121121#1"/>
    <trip id="19" depart="19.00" from="318338685#2" to="27333486"/>
    <trip id="20" depart="20.00" from="-27206600" to="-44142814#2"/>
    <trip id="21" depart="21.00" from="15893846#4" to="-167790868#5"/>
    <trip id="22" depart="22.00" from="24917839#1" to="-24792511#8"/>
    <trip id="23" depart="23.00" from="180756793#1" to="-33832375#3"/>
    <trip id="24" depart="24.00" from="23364936#0" to="-14835392#5"/>
    <trip id="25" depart="25.00" from="30640906" to="255768742#3"/>
    <trip id="26" depart="26.00" from="79679471#1" to="343982066"/>
    <trip id="27" depart="27.00" from="73489390#0" to="16089715"/>
    <trip id="28" depart="28.00" from="-152050988#3" to="-23492054#4"/>
    <trip id="29" depart="29.00" from="-28747829#0" to="42025932#1"/>
    <trip id="30" depart="30.00" from="-29117694#0" to="30767343#1"/>
    <trip id="31" depart="31.00" from="23609803" to="24826013#4"/>
    <trip id="32" depart="32.00" from="157597369" to="-29098515#0"/>
    <trip id="33" depart="33.00" from="40742590#1" to="-31099136"/>
    <trip id="34" depart="34.00" from="30883230" to="14442573#0"/>
    <trip id="35" depart="35.00" from="228637769#0" to="-448500783"/>
    <trip id="36" depart="36.00" from="78621891#1" to="51763700#0"/>
    <trip id="37" depart="37.00" from="8382440#2" to="24829629"/>
    <trip id="38" depart="38.00" from="148212526#1" to="25449638#5"/>
    <trip id="39" depart="39.00" from="238862374#1" to="-23492653#9"/>
    <trip id="40" depart="40.00" from="237980843#0" to="501475843#0"/>
    <trip id="41" depart="41.00" from="-33685254#1" to="255384736#0"/>
    <trip id="42" depart="42.00" from="148105460#3" to="-23147700#1"/>
    <trip id="43" depart="43.00" from="-8382586#0" to="-16369448#0"/>
    <trip id="44" depart="44.00" from="24451066#1" to="-123929570#2"/>
    <trip id="45" depart="45.00" from="-24590964" to="113408095#2"/>
    <trip id="46" depart="46.00" from="161858022#1" to="445432674"/>
    <trip id="47" depart="47.00" from="-40655369#3" to="-343887417"/>
    <trip id="48" depart="48.00" from="23045602" to="-24563622#2"/>
    <trip id="49" depart="49.00" from="24666279#2" to="8176380#1"/>
    <trip id="50" depart="50.00" from="107106048#1" to="33438760#0"/>
    <trip id="51" depart="51.00" from="13767486#0" to="-35918250"/>
    <trip id="52" depart="52.00" from="154519633#1" to="27431623#1"/>
    <trip id="53" depart="53.00" from="-23492041#2" to="209241540#9"/>
    <trip id="54" depart="54.00" from="109573590#0" to="10502388#0"/>
    <trip id="55" depart="55.00" from="8382347#0" to="-147714160#1"/>
    <trip id="56" depart="56.00" from="147663002#0" to="284495312#3"/>
    <trip id="57" depart="57.00" from="-29116728#3" to="-25430274#0"/>
    <trip id="58" depart="58.00" from="8103965#1" to="-47116362"/>
    <trip id="59" depart="59.00" from="255730249#0" to="-25382661#0"/>
    <trip id="60" depart="60.00" from="234850995#1" to="31096337"/>
    <trip id="61" depart="61.00" from="-45106510#0" to="51768965#2"/>
    <trip id="62" depart="62.00" from="-110262554" to="30629887#1"/>
    <trip id="63" depart="63.00" from="51770445#1" to="23161286#0"/>
    <trip id="64" depart="64.00" from="28402821#3" to="-442143100"/>
    <trip id="65" depart="65.00" from="91727923" to="24792647#3"/>
    <trip id="66" depart="66.00" from="8243397#0" to="108891020"/>
    <trip id="67" depart="67.00" from="110262553#3" to="28880919#9"/>
    <trip id="68" depart="68.00" from="-15371333#2" to="14476503#1"/>
    <trip id="69" depart="69.00" from="24667270#0" to="14459722#6"/>
    <trip id="70" depart="70.00" from="-29265777#1" to="-147913910#2"/>
    <trip id="71" depart="71.00" from="101240217#0" to="329363827#4"/>
    <trip id="72" depart="72.00" from="59452390#2" to="159327013#1"/>
    <trip id="73" depart="73.00" from="-260003399#1" to="457637696#2"/>
    <trip id="74" depart="74.00" from="135300821#0" to="117987876#2"/>
    <trip id="75" depart="75.00" from="110308677" to="180006130#1"/>
    <trip id="76" depart="76.00" from="40793030#0" to="-31226063#1"/>
    <trip id="77" depart="77.00" from="-108931456#3" to="266572368"/>
    <trip id="78" depart="78.00" from="40151766#1" to="-304086755"/>
    <trip id="79" depart="79.00" from="27333486" to="147255910#3"/>
    <trip id="80" depart="80.00" from="14783207#4" to="-35963436"/>
    <trip id="81" depart="81.00" from="-23492896#1" to="-23641361#1"/>
    <trip id="82" depart="82.00" from="152052761" to="12344336"/>
    <trip id="83" depart="83.00" from="-14456416#0" to="477054046#7"/>
    <trip id="84" depart="84.00" from="-208506195#5" to="118798023"/>
    <trip id="85" depart="85.00" from="33428372#1" to="162957672#0"/>
    <trip id="86" depart="86.00" from="15353886#0" to="31904447#1"/>
    <trip id="87" depart="87.00" from="32515140#1" to="39448536#0"/>
    <trip id="88" depart="88.00" from="-248224368" to="61881885#1"/>
    <trip id="89" depart="89.00" from="439348507" to="62020116#0"/>
    <trip id="90" depart="90.00" from="-37166983" to="307580154#4"/>
    <trip id="91" depart="91.00" from="23584443#1" to="-26614122#0"/>
    <trip id="92" depart="92.00" from="-408229577#3" to="16089730#1"/>
    <trip id="93" depart="93.00" from="231468778#0" to="30767339#1"/>
    <trip id="94" depart="94.00" from="-94109075" to="-43964059#0"/>
    <trip id="95" depart="95.00" from="-30374578" to="-149149056#0"/>
    <trip id="96" depart="96.00" from="496965065#1" to="23489276"/>
    <trip id="97" depart="97.00" from="-24973949" to="29024341"/>
    <trip id="98" depart="98.00" from="16590656" to="24899453#1"/>
    <trip id="99" depart="99.00" from="24491264" to="23781296"/>
    <trip id="100" depart="100.00" from="35272586" to="40564208"/>
    <trip id="101" depart="101.00" from="16518802" to="23115975#1"/>
    <trip id="102" depart="102.00" from="148146421#1" to="-109584329#1"/>
    <trip id="103" depart="103.00" from="-28108431#1" to="14386595#1"/>
    <trip id="104" depart="104.00" from="63797918#2" to="-24792597#0"/>
    <trip id="105" depart="105.00" from="-30990296#0" to="349372032#1"/>
    <trip id="106" depart="106.00" from="-10641410" to="-28804027#0"/>
    <trip id="107" depart="107.00" from="-22262322#0" to="117164284"/>
    <trip id="108" depart="108.00" from="147686361#1" to="-236815803#3"/>
    <trip id="109" depart="109.00" from="-33096358#2" to="28762016#0"/>
    <trip id="110" depart="110.00" from="39625447" to="-24806192"/>
    <trip id="111" depart="111.00" from="23045538#0" to="-24974049"/>
    <trip id="112" depart="112.00" from="147645122#2" to="-303827600#7"/>
    <trip id="113" depart="113.00" from="35552550#3" to="140300773"/>
    <trip id="114" depart="114.00" from="-28254185" to="-154519633#1"/>
    <trip id="115" depart="115.00" from="-35800936#6" to="26573647#0"/>
    <trip id="116" depart="116.00" from="413676910#11" to="-28114713#0"/>
    <trip id="117" depart="117.00" from="-29025762#3" to="305850759"/>
    <trip id="118" depart="118.00" from="319026911" to="114584035#1"/>
    <trip id="119" depart="119.00" from="-191381876#0" to="35812286"/>
    <trip id="120" depart="120.00" from="-82139668" to="30629887#0"/>
    <trip id="121" depart="121.00" from="180156396#29" to="180156396#10"/>
    <trip id="122" depart="122.00" from="244307212#1" to="30800429#2"/>
    <trip id="123" depart="123.00" from="-131194450#0" to="22664856#4"/>
    <trip id="124" depart="124.00" from="80652812" to="8139836#1"/>
    <trip id="125" depart="125.00" from="265329609#2" to="24591645"/>
    <trip id="126" depart="126.00" from="149141414#1" to="181218814#3"/>
    <trip id="127" depart="127.00" from="32515076#4" to="-129212025#4"/>
    <trip id="128" depart="128.00" from="-15275501#3" to="-80652825"/>
    <trip id="129" depart="129.00" from="533481425" to="-308601943"/>
    <trip id="130" depart="130.00" from="146080762" to="225605521#0"/>
    <trip id="131" depart="131.00" from="27808465#3" to="41175859#4"/>
    <trip id="132" depart="132.00" from="254857678#3" to="147905268#1"/>
    <trip id="133" depart="133.00" from="166469702#1" to="147867270#0"/>
    <trip id="134" depart="134.00" from="-77670046" to="302596791#0"/>
    <trip id="135" depart="135.00" from="14473609#0" to="-227215971#1"/>
    <trip id="136" depart="136.00" from="-150276003#1" to="238201311#0"/>
    <trip id="137" depart="137.00" from="-27088471#0" to="27884089#0"/>
    <trip id="138" depart="138.00" from="14362929" to="129212014"/>
    <trip id="139" depart="139.00" from="302192072#1" to="-34249629#4"/>
    <trip id="140" depart="140.00" from="8085532" to="-19881029#1"/>
    <trip id="141" depart="141.00" from="147682495#3" to="-24590906"/>
    <trip id="142" depart="142.00" from="-180616985" to="-101240089"/>
    <trip id="143" depart="143.00" from="-62297408#1" to="35830470#1"/>
    <trip id="144" depart="144.00" from="-420253740#1" to="-36331187"/>
    <trip id="145" depart="145.00" from="-32472989#0" to="-17201709#0"/>
    <trip id="146" depart="146.00" from="417322356" to="-38967569"/>
    <trip id="147" depart="147.00" from="-23114328" to="-29280493#1"/>
    <trip id="148" depart="148.00" from="-131399199" to="199092324#1"/>
    <trip id="149" depart="149.00" from="35830466#2" to="-24019923#1"/>
    <trip id="150" depart="150.00" from="23253705#4" to="-173634164#7"/>
    <trip id="151" depart="151.00" from="-23253805#1" to="40429701"/>
    <trip id="152" depart="152.00" from="-24395890#0" to="-319041442#4"/>
    <trip id="153" depart="153.00" from="23329828#1" to="-39723660#3"/>
    <trip id="154" depart="154.00" from="108891020" to="-24806209#0"/>
    <trip id="155" depart="155.00" from="-14456457#2" to="-28509973#5"/>
    <trip id="156" depart="156.00" from="40144680#1" to="29117779#5"/>
    <trip id="157" depart="157.00" from="39644024#0" to="27638033"/>
    <trip id="158" depart="158.00" from="8240640#1" to="114899989#7"/>
    <trip id="159" depart="159.00" from="62016961#0" to="-26350383#1"/>
    <trip id="160" depart="160.00" from="42574378#3" to="451908593#1"/>
    <trip id="161" depart="161.00" from="4445214" to="-5152432"/>
    <trip id="162" depart="162.00" from="24952302#0" to="4306938#0"/>
    <trip id="163" depart="163.00" from="-23609705#0" to="40742440"/>
    <trip id="164" depart="164.00" from="-72335689#4" to="41428905#1"/>
    <trip id="165" depart="165.00" from="28847126#4" to="-27285082#0"/>
    <trip id="166" depart="166.00" from="29025978#1" to="-24806209#1"/>
    <trip id="167" depart="167.00" from="-147759772#0" to="-33908733"/>
    <trip id="168" depart="168.00" from="252729192#3" to="-10502388#0"/>
    <trip id="169" depart="169.00" from="45456487#2" to="26052996#1"/>
    <trip id="170" depart="170.00" from="-34008770" to="30175717#1"/>
    <trip id="171" depart="171.00" from="-14384660#3" to="-135406062#2"/>
    <trip id="172" depart="172.00" from="14373058#1" to="-126494286"/>
    <trip id="173" depart="173.00" from="26114587#2" to="-95395439#1"/>
    <trip id="174" depart="174.00" from="-33288440#9" to="-24466071"/>
    <trip id="175" depart="175.00" from="-40804488#6" to="16598186"/>
    <trip id="176" depart="176.00" from="4318237#0" to="4907457#28"/>
    <trip id="177" depart="177.00" from="16368261#6" to="256655534"/>
    <trip id="178" depart="178.00" from="150232853#2" to="329869772"/>
    <trip id="179" depart="179.00" from="-244422542#1" to="23489247#0"/>
    <trip id="180" depart="180.00" from="67243724#1" to="-26134774#1"/>
    <trip id="181" depart="181.00" from="-33903862" to="32263461"/>
    <trip id="182" depart="182.00" from="338307179#0" to="-32264609"/>
    <trip id="183" depart="183.00" from="45106510#0" to="62149051#1"/>
    <trip id="184" depart="184.00" from="177976963#0" to="5151790#1"/>
    <trip id="185" depart="185.00" from="23491535" to="411776520#0"/>
    <trip id="186" depart="186.00" from="-28110580#1" to="233559692#0"/>
    <trip id="187" depart="187.00" from="112368850#1" to="-409836305"/>
    <trip id="188" depart="188.00" from="33465212#0" to="-24806134#0"/>
    <trip id="189" depart="189.00" from="-22913544#2" to="-59576669#0"/>
    <trip id="190" depart="190.00" from="23793987#1" to="302900595#1"/>
    <trip id="191" depart="191.00" from="-28762023" to="-8030668#1"/>
    <trip id="192" depart="192.00" from="-8029267" to="-24806205"/>
    <trip id="193" depart="193.00" from="354729471#1" to="8382285"/>
    <trip id="194" depart="194.00" from="22414385#0" to="-75295868#0"/>
    <trip id="195" depart="195.00" from="343204751" to="14372917"/>
    <trip id="196" depart="196.00" from="-198765045#1" to="-306158547#1"/>
    <trip id="197" depart="197.00" from="-190258668#1" to="132148873"/>
    <trip id="198" depart="198.00" from="29024676" to="-28804901#0"/>
    <trip id="199" depart="199.00" from="161858022#0" to="-16595203#1"/>
    <trip id="200" depart="200.00" from="-72533548#1" to="-14364455#0"/>
    <trip id="201" depart="201.00" from="-23328516" to="34047257#1"/>
    <trip id="202" depart="202.00" from="-288445065#2" to="288445065#4"/>
    <trip id="203" depart="203.00" from="350615092" to="307954786#0"/>
    <trip id="204" depart="204.00" from="35668752#4" to="-16310391#1"/>
    <trip id="205" depart="205.00" from="-75065746" to="-43964059#0"/>
    <trip id="206" depart="206.00" from="19881126" to="55391470"/>
    <trip id="207" depart="207.00" from="-5229737#0" to="-126904674"/>
    <trip id="208" depart="208.00" from="-29021356" to="14383298#2"/>
    <trip id="209" depart="209.00" from="-29117246" to="-198463120"/>
    <trip id="210" depart="210.00" from="-246883061" to="328191145#7"/>
    <trip id="211" depart="211.00" from="23160588#2" to="-33287109#1"/>
    <trip id="212" depart="212.00" from="-35800763#1" to="-35800758#0"/>
    <trip id="213" depart="213.00" from="-14364455#4" to="258340526"/>
    <trip id="214" depart="214.00" from="-32792585#0" to="35682653#1"/>
    <trip id="215" depart="215.00" from="23491559#1" to="-131725548#1"/>
    <trip id="216" depart="216.00" from="126796515#0" to="-33913108"/>
    <trip id="217" depart="217.00" from="135582916" to="246054907#1"/>
    <trip id="218" depart="218.00" from="4730652" to="-109852796#9"/>
    <trip id="219" depart="219.00" from="-252972944#0" to="162957672#0"/>
    <trip id="220" depart="220.00" from="22971930#3" to="-32932408#0"/>
    <trip id="221" depart="221.00" from="-361112582#4" to="19846527#0"/>
    <trip id="222" depart="222.00" from="129211970" to="23147905#12"/>
    <trip id="223" depart="223.00" from="26114889#2" to="-24030544#6"/>
    <trip id="224" depart="224.00" from="15893844#1" to="-112314810"/>
    <trip id="225" depart="225.00" from="118769849#3" to="-24536854#4"/>
    <trip id="226" depart="226.00" from="29335246" to="17191568"/>
    <trip id="227" depart="227.00" from="-450218957#1" to="29117532#0"/>
    <trip id="228" depart="228.00" from="-23114290#3" to="-126705118#4"/>
    <trip id="229" depart="229.00" from="14831508" to="-532747520"/>
    <trip id="230" depart="230.00" from="-22734666#3" to="129212012"/>
    <trip id="231" depart="231.00" from="29024175#3" to="-45266841"/>
    <trip id="232" depart="232.00" from="-131725551#0" to="149149067#0"/>
    <trip id="233" depart="233.00" from="186514273#1" to="24952363#0"/>
    <trip id="234" depart="234.00" from="-24825908#0" to="14360333"/>
    <trip id="235" depart="235.00" from="-43636297" to="-23253890#2"/>
    <trip id="236" depart="236.00" from="29347255#0" to="-24974215"/>
    <trip id="237" depart="237.00" from="-35682611#7" to="23329868#1"/>
    <trip id="238" depart="238.00" from="-50233055#3" to="-150187075#2"/>
    <trip id="239" depart="239.00" from="64488039#1" to="-35670638#1"/>
    <trip id="240" depart="240.00" from="75296710#0" to="23161184#3"/>
    <trip id="241" depart="241.00" from="-147281000#1" to="23013078#1"/>
    <trip id="242" depart="242.00" from="40224722#2" to="35276502#1"/>
    <trip id="243" depart="243.00" from="-24879231#1" to="-23114528#1"/>
    <trip id="244" depart="244.00" from="489735749#0" to="-61881382#3"/>
    <trip id="245" depart="245.00" from="-105251082#0" to="-30040190#1"/>
    <trip id="246" depart="246.00" from="38828656" to="-409568727#1"/>
    <trip id="247" depart="247.00" from="4730995" to="-96258341#1"/>
    <trip id="248" depart="248.00" from="-212459664#1" to="350991122"/>
    <trip id="249" depart="249.00" from="23171716#2" to="246054907#0"/>
    <trip id="250" depart="250.00" from="61429595" to="165740323#2"/>
    <trip id="251" depart="251.00" from="292269291" to="-8139836#0"/>
    <trip id="252" depart="252.00" from="-75909406#1" to="4907459"/>
    <trip id="253" depart="253.00" from="149141419" to="-23094271#1"/>
    <trip id="254" depart="254.00" from="315949349" to="17506275"/>
    <trip id="255" depart="255.00" from="-16591354#0" to="-26349983#0"/>
    <trip id="256" depart="256.00" from="77045435" to="91439902#0"/>
    <trip id="257" depart="257.00" from="-30759539" to="261715797"/>
    <trip id="258" depart="258.00" from="13037186#1" to="14359489#2"/>
    <trip id="259" depart="259.00" from="-147682492#1" to="-308667503#1"/>
    <trip id="260" depart="260.00" from="-29022228#4" to="-98597126"/>
    <trip id="261" depart="261.00" from="-23160709#0" to="320387485#7"/>
    <trip id="262" depart="262.00" from="31226065" to="24849495#1"/>
    <trip id="263" depart="263.00" from="-147913888#2" to="25449843#1"/>
    <trip id="264" depart="264.00" from="22414557#2" to="53556218#1"/>
    <trip id="265" depart="265.00" from="-29021855#1" to="41393113"/>
    <trip id="266" depart="266.00" from="-26129742" to="42574382#7"/>
    <trip id="267" depart="267.00" from="-24692741#2" to="34565554#2"/>
    <trip id="268" depart="268.00" from="112321356#1" to="-25076360#0"/>
    <trip id="269" depart="269.00" from="-14372805#4" to="15887657"/>
    <trip id="270" depart="270.00" from="4979602#0" to="4730648#0"/>
    <trip id="271" depart="271.00" from="-149149065" to="48688785"/>
    <trip id="272" depart="272.00" from="37042724#3" to="-34285701#1"/>
    <trip id="273" depart="273.00" from="-24918610#6" to="29347255#0"/>
    <trip id="274" depart="274.00" from="59397451" to="8152034#0"/>
    <trip id="275" depart="275.00" from="15089507" to="-38908646#2"/>
    <trip id="276" depart="276.00" from="-123929637#2" to="-28272110"/>
    <trip id="277" depart="277.00" from="309550199#2" to="32858313#5"/>
    <trip id="278" depart="278.00" from="32252447#4" to="-44142808"/>
    <trip id="279" depart="279.00" from="123522145" to="465965704#0"/>
    <trip id="280" depart="280.00" from="419710666#6" to="-40804487#3"/>
    <trip id="281" depart="281.00" from="-14829341#2" to="-26236122#3"/>
    <trip id="282" depart="282.00" from="-29452340#1" to="23493095#1"/>
    <trip id="283" depart="283.00" from="23148145" to="305850753"/>
    <trip id="284" depart="284.00" from="244422542#17" to="29022308#2"/>
    <trip id="285" depart="285.00" from="-26052381" to="32974093#0"/>
    <trip id="286" depart="286.00" from="50282914#0" to="-97802174"/>
    <trip id="287" depart="287.00" from="129723368" to="29117152#1"/>
    <trip id="288" depart="288.00" from="-69157224" to="-319026908#4"/>
    <trip id="289" depart="289.00" from="39702844" to="-23115839#2"/>
    <trip id="290" depart="290.00" from="150275990" to="-342368197#0"/>
    <trip id="291" depart="291.00" from="22776799#0" to="-513507073#0"/>
    <trip id="292" depart="292.00" from="-51889141" to="316579783"/>
    <trip id="293" depart="293.00" from="33287395" to="47247121#0"/>
    <trip id="294" depart="294.00" from="-105040345#2" to="-40435595#2"/>
    <trip id="295" depart="295.00" from="41591418#13" to="164763414#1"/>
    <trip id="296" depart="296.00" from="28272981#4" to="-53556192#1"/>
    <trip id="297" depart="297.00" from="511124340" to="353810206#6"/>
    <trip id="298" depart="298.00" from="-23253814" to="25367205#0"/>
    <trip id="299" depart="299.00" from="-147281009#1" to="-208587335#1"/>
    <trip id="300" depart="300.00" from="23489241#0" to="-24792447#1"/>
    <trip id="301" depart="301.00" from="350991140" to="8511544#1"/>
    <trip id="302" depart="302.00" from="354729465" to="253109085#1"/>
    <trip id="303" depart="303.00" from="419671379" to="14794038#1"/>
    <trip id="304" depart="304.00" from="33288225#3" to="-305583926"/>
    <trip id="305" depart="305.00" from="-40144683#0" to="-448161598#1"/>
    <trip id="306" depart="306.00" from="15898333#1" to="108890691#2"/>
    <trip id="307" depart="307.00" from="-149141437#1" to="30779626"/>
    <trip id="308" depart="308.00" from="-26038373#2" to="-258331309"/>
    <trip id="309" depart="309.00" from="-30175433#2" to="-14384458"/>
    <trip id="310" depart="310.00" from="234740209" to="504545687#0"/>
    <trip id="311" depart="311.00" from="390223201#1" to="8085463"/>
    <trip id="312" depart="312.00" from="14648178#0" to="-23115844#0"/>
    <trip id="313" depart="313.00" from="148190423" to="23173171"/>
    <trip id="314" depart="314.00" from="23491579" to="107466107"/>
    <trip id="315" depart="315.00" from="186511890#1" to="35097485#0"/>
    <trip id="316" depart="316.00" from="-348455024#0" to="31669960#1"/>
    <trip id="317" depart="317.00" from="8762672#2" to="510453811#2"/>
    <trip id="318" depart="318.00" from="-24792480#8" to="201010398"/>
    <trip id="319" depart="319.00" from="117351089#0" to="40647140#0"/>
    <trip id="320" depart="320.00" from="-23609788#0" to="12830001#10"/>
    <trip id="321" depart="321.00" from="126494316" to="-181647525"/>
    <trip id="322" depart="322.00" from="-28999624#0" to="26037575#0"/>
    <trip id="323" depart="323.00" from="22650695" to="17201097#5"/>
    <trip id="324" depart="324.00" from="-23493522" to="16515217#0"/>
    <trip id="325" depart="325.00" from="4730935#0" to="-109573618#1"/>
    <trip id="326" depart="326.00" from="150208395" to="35801425#3"/>
    <trip id="327" depart="327.00" from="-13752101#1" to="125736645#1"/>
    <trip id="328" depart="328.00" from="12471503#1" to="-231948990#2"/>
    <trip id="329" depart="329.00" from="-125004565" to="23253891#1"/>
    <trip id="330" depart="330.00" from="-107105147#3" to="13751209"/>
    <trip id="331" depart="331.00" from="-23640754" to="349688232#0"/>
    <trip id="332" depart="332.00" from="-39723660#2" to="24671089#2"/>
    <trip id="333" depart="333.00" from="222474762#13" to="174501724"/>
    <trip id="334" depart="334.00" from="147714200#0" to="-126494295#0"/>
    <trip id="335" depart="335.00" from="28402830#1" to="181647525"/>
    <trip id="336" depart="336.00" from="23642283#2" to="-40266087#2"/>
    <trip id="337" depart="337.00" from="-147767357#0" to="28178994#2"/>
    <trip id="338" depart="338.00" from="-149141444#0" to="-22414564#0"/>
    <trip id="339" depart="339.00" from="-230220059" to="38938810"/>
    <trip id="340" depart="340.00" from="-413676910#5" to="23115909#0"/>
    <trip id="341" depart="341.00" from="-178224401#0" to="251891705"/>
    <trip id="342" depart="342.00" from="-172992519#3" to="-19796338#1"/>
    <trip id="343" depart="343.00" from="24974069#1" to="-212459664#0"/>
    <trip id="344" depart="344.00" from="8072974" to="-62292583#3"/>
    <trip id="345" depart="345.00" from="-19878052#5" to="-505898672#1"/>
    <trip id="346" depart="346.00" from="39309259" to="305850759"/>
    <trip id="347" depart="347.00" from="133434347#2" to="449091015"/>
    <trip id="348" depart="348.00" from="30627587#0" to="-171271136#1"/>
    <trip id="349" depart="349.00" from="33832356#2" to="-274483358#2"/>
    <trip id="350" depart="350.00" from="175872996#5" to="-30643563#3"/>
    <trip id="351" depart="351.00" from="28108869#6" to="11627745#1"/>
    <trip id="352" depart="352.00" from="-41566518#8" to="-39442642#0"/>
    <trip id="353" depart="353.00" from="-15897098" to="-240551498"/>
    <trip id="354" depart="354.00" from="25449638#0" to="29025766#1"/>
    <trip id="355" depart="355.00" from="515074427#0" to="27139140#1"/>
    <trip id="356" depart="356.00" from="24806257#2" to="-30656964#2"/>
    <trip id="357" depart="357.00" from="423234006#0" to="26235974#4"/>
    <trip id="358" depart="358.00" from="-25218767#6" to="-35377728"/>
    <trip id="359" depart="359.00" from="-131194450#1" to="-23781953#1"/>
    <trip id="360" depart="360.00" from="-47293821#2" to="104991512#1"/>
    <trip id="361" depart="361.00" from="28863414#0" to="224289699#4"/>
    <trip id="362" depart="362.00" from="-18351253#0" to="260000170#1"/>
    <trip id="363" depart="363.00" from="-157274034#0" to="-22262324#1"/>
    <trip id="364" depart="364.00" from="217833640#2" to="404531735"/>
    <trip id="365" depart="365.00" from="-36330127#1" to="-56077903#0"/>
    <trip id="366" depart="366.00" from="23584443#1" to="8653412"/>
    <trip id="367" depart="367.00" from="42574378#0" to="316579783"/>
    <trip id="368" depart="368.00" from="-34249629#3" to="73335081#4"/>
    <trip id="369" depart="369.00" from="-29117779#5" to="16598411"/>
    <trip id="370" depart="370.00" from="348384901#1" to="399057805#0"/>
    <trip id="371" depart="371.00" from="14373058#2" to="123929844"/>
    <trip id="372" depart="372.00" from="169878566#1" to="45107837"/>
    <trip id="373" depart="373.00" from="-61507892#0" to="19396468#4"/>
    <trip id="374" depart="374.00" from="26038104" to="-24730082#0"/>
    <trip id="375" depart="375.00" from="14479424#4" to="150220128#3"/>
    <trip id="376" depart="376.00" from="8245428#1" to="-154516239#2"/>
    <trip id="377" depart="377.00" from="-399062050#0" to="23114451#1"/>
    <trip id="378" depart="378.00" from="19797359#0" to="4730637#1"/>
    <trip id="379" depart="379.00" from="32297263#1" to="233489530#1"/>
    <trip id="380" depart="380.00" from="144782838#0" to="29024175#1"/>
    <trip id="381" depart="381.00" from="166854857#2" to="-29453936"/>
    <trip id="382" depart="382.00" from="244422542#3" to="14453565#1"/>
    <trip id="383" depart="383.00" from="303827600#1" to="42971226"/>
    <trip id="384" depart="384.00" from="-125835558#3" to="-305669767"/>
    <trip id="385" depart="385.00" from="118797987#1" to="35800763#6"/>
    <trip id="386" depart="386.00" from="-8382623#0" to="-109573592#4"/>
    <trip id="387" depart="387.00" from="28054133#1" to="-14375086"/>
    <trip id="388" depart="388.00" from="222474757" to="-23115909#3"/>
    <trip id="389" depart="389.00" from="24825939#2" to="-391969377#0"/>
    <trip id="390" depart="390.00" from="4975060" to="450329254"/>
    <trip id="391" depart="391.00" from="14831508" to="37040328#1"/>
    <trip id="392" depart="392.00" from="-157823367#9" to="-81836595"/>
    <trip id="393" depart="393.00" from="34996911" to="78255845#1"/>
    <trip id="394" depart="394.00" from="39093368#0" to="307014268#0"/>
    <trip id="395" depart="395.00" from="-51770446#0" to="-29025633#2"/>
    <trip id="396" depart="396.00" from="40742589#6" to="420011569"/>
    <trip id="397" depart="397.00" from="231947858#8" to="-198037648#2"/>
    <trip id="398" depart="398.00" from="-13767362#2" to="123519755"/>
    <trip id="399" depart="399.00" from="-239758251" to="-52773091"/>
    <trip id="400" depart="400.00" from="27206595" to="35671188#6"/>
    <trip id="401" depart="401.00" from="26215219#3" to="28491996#1"/>
    <trip id="402" depart="402.00" from="-29023871#7" to="-40459752#3"/>
    <trip id="403" depart="403.00" from="40435485#1" to="-29064058#2"/>
    <trip id="404" depart="404.00" from="-29208425" to="-39309252"/>
    <trip id="405" depart="405.00" from="-24974032#1" to="-39309257#4"/>
    <trip id="406" depart="406.00" from="17171871" to="-50905147#1"/>
    <trip id="407" depart="407.00" from="465680923#0" to="16596653#4"/>
    <trip id="408" depart="408.00" from="148105486#3" to="12830922#0"/>
    <trip id="409" depart="409.00" from="149134787" to="31675199#1"/>
    <trip id="410" depart="410.00" from="31233327#13" to="24952363#1"/>
    <trip id="411" depart="411.00" from="13430370" to="302053380#2"/>
    <trip id="412" depart="412.00" from="38073260#3" to="183454204#2"/>
    <trip id="413" depart="413.00" from="33574387" to="-27417838"/>
    <trip id="414" depart="414.00" from="307372329#11" to="47246954"/>
    <trip id="415" depart="415.00" from="36801002#1" to="110262565"/>
    <trip id="416" depart="416.00" from="-129211978#2" to="147714169"/>
    <trip id="417" depart="417.00" from="39443239#2" to="28814174#0"/>
    <trip id="418" depart="418.00" from="69922865#1" to="423234003#4"/>